* File: decoder_3to8.pex.netlist.pex
* Created: Mon Mar 28 20:27:33 2022
* Program "Calibre xRC"
* Version "v2016.4_15.11"
* Nominal Temperature: 27C
* Circuit Temperature: 27C
* 
.subckt PM_DECODER_3TO8%NET15 21 26 33 36 39 42
c0 67 0 0.171488f
c1 66 0 0.251347f
c2 61 0 0.173163f
c3 60 0 0.335905f
c4 49 0 0.10107f
c5 44 0 0.101961f
c6 39 0 0.42066f
c7 33 0 0.439042f
c8 29 0 0.461374f
c9 18 0 0.866372f
c10 12 0 0.235987f
c11 4 0 0.0615325f
r12 66 67 8
r13 60 61 8
r14 54 55 8
r15 49 51 8.43283
r16 49 67 13.2552
r17 44 46 8.43283
r18 44 61 13.2552
r19 42 51 76.75
r20 39 42 94.25
r21 36 46 76.75
r22 33 36 94.25
r23 28 29 16.3327
r24 26 28 4.608
r25 24 55 0.208415
r26 24 29 0.550755
r27 23 24 8.16635
r28 21 23 2.304
r29 19 66 0.330804
r30 18 19 8
r31 16 60 0.330804
r32 15 18 0.6188
r33 15 16 8
r34 11 15 0.7238
r35 11 12 8
r36 5 12 0.477054
r37 4 54 0.0602931
r38 4 5 0.0363319
.ends

.subckt PM_DECODER_3TO8%W2 7 17 20 23 26
c0 46 0 0.628088f
c1 40 0 0.438713f
c2 37 0 0.114439f
c3 35 0 0.10614f
c4 31 0 0.170611f
c5 30 0 0.109844f
c6 23 0 0.302415f
c7 17 0 0.358831f
c8 12 0 0.20232f
r9 35 46 8
r10 34 37 5.382
r11 34 35 13.2552
r12 31 40 8
r13 30 31 13.2552
r14 27 30 3.348
r15 23 26 94.25
r16 21 37 5.0159
r17 21 26 37.75
r18 17 20 94.25
r19 15 27 5.0159
r20 15 20 76.75
r21 13 46 0.745179
r22 12 13 8
r23 10 40 0.557143
r24 7 12 0.31248
r25 7 10 8
.ends

.subckt PM_DECODER_3TO8%NET19 16 21 28 31
c0 46 0 0.110777f
c1 45 0 0.451925f
c2 36 0 0.11841f
c3 28 0 0.325636f
c4 24 0 0.455314f
c5 13 0 0.556788f
c6 10 0 0.600148f
c7 3 0 0.0982994f
r8 45 46 8
r9 39 40 8
r10 33 36 5.112
r11 33 46 13.2552
r12 28 31 94.25
r13 26 36 5.0159
r14 26 31 37.75
r15 23 24 16.3327
r16 21 23 4.608
r17 19 40 0.208415
r18 19 24 0.550755
r19 18 19 8.16635
r20 16 18 2.304
r21 14 45 0.629107
r22 13 14 8
r23 9 13 0.7602
r24 9 10 8
r25 4 10 0.609074
r26 3 39 0.056931
r27 3 4 0.0363777
.ends

.subckt PM_DECODER_3TO8%NET1 23 28 29 35 38
c0 51 0 0.178997f
c1 50 0 0.509412f
c2 42 0 0.106378f
c3 35 0 0.394884f
c4 32 0 0.175348f
c5 26 0 0.12093f
c6 19 0 0.0177219f
c7 15 0 2.09326f
c8 12 0 0.779353f
c9 9 0 0.0349342f
c10 8 0 0.0378667f
c11 3 0 0.0752179f
r12 50 51 8
r13 42 51 13.2552
r14 39 42 3.348
r15 35 38 94.25
r16 33 39 5.0159
r17 33 38 76.75
r18 31 32 16.3327
r19 29 31 4.608
r20 28 31 4.572
r21 25 26 8.16635
r22 23 25 2.286
r23 21 22 8
r24 19 32 0.320783
r25 19 21 0.0211115
r26 18 26 0.20234
r27 16 50 0.913482
r28 15 16 8
r29 11 15 5.12189
r30 11 12 8
r31 9 18 0.039111
r32 8 21 0.0182543
r33 8 9 0.116226
r34 4 12 1.45205
r35 3 22 0.147707
r36 3 4 0.0363319
.ends

.subckt PM_DECODER_3TO8%NET6 15 20 21 27 30
c0 41 0 0.182898f
c1 40 0 0.0778024f
c2 34 0 0.103624f
c3 27 0 0.39494f
c4 24 0 0.172435f
c5 18 0 0.131252f
c6 11 0 0.0158285f
c7 9 0 0.0311671f
c8 8 0 0.0378015f
c9 5 0 0.0326185f
c10 4 0 0.106815f
c11 3 0 0.215322f
r12 40 41 8
r13 34 41 13.2552
r14 31 34 3.348
r15 27 30 94.25
r16 25 31 5.0159
r17 25 30 76.75
r18 23 24 16.3327
r19 21 23 4.608
r20 20 23 4.572
r21 17 18 8.16635
r22 15 17 2.286
r23 13 14 8
r24 11 24 0.320783
r25 11 13 0.0211115
r26 10 18 0.20234
r27 9 10 0.039111
r28 8 13 0.0182543
r29 8 9 0.116226
r30 5 40 0.167207
r31 4 14 0.236241
r32 3 5 0.0363319
r33 2 4 0.0363319
r34 2 3 0.504911
.ends

.subckt PM_DECODER_3TO8%XI1/NET1 31 36 43 46 49 52 55 58 61 64
c0 107 0 0.127359f
c1 106 0 0.264062f
c2 101 0 0.127175f
c3 100 0 0.263798f
c4 95 0 0.127359f
c5 94 0 0.264062f
c6 89 0 0.133067f
c7 88 0 0.376047f
c8 78 0 0.104809f
c9 74 0 0.104758f
c10 70 0 0.104809f
c11 66 0 0.107721f
c12 61 0 0.426551f
c13 55 0 0.426574f
c14 49 0 0.426697f
c15 43 0 0.429258f
c16 39 0 0.470032f
c17 28 0 2.2269f
c18 16 0 0.296497f
c19 6 0 0.0928169f
r20 106 107 8
r21 100 101 8
r22 94 95 8
r23 88 89 8
r24 82 83 8
r25 78 80 2.95792
r26 78 107 13.2552
r27 74 76 2.95792
r28 74 101 13.2552
r29 70 72 2.95792
r30 70 95 13.2552
r31 66 68 2.95792
r32 66 89 13.2552
r33 61 64 94.25
r34 59 80 5.00671
r35 59 64 76.75
r36 55 58 94.25
r37 53 76 5.00671
r38 53 58 76.75
r39 49 52 94.25
r40 47 72 5.00671
r41 47 52 76.75
r42 43 46 94.25
r43 41 68 5.00671
r44 41 46 76.75
r45 38 39 16.3327
r46 36 38 4.608
r47 34 83 0.208415
r48 34 39 0.550755
r49 33 34 8.16635
r50 31 33 2.304
r51 29 106 0.330804
r52 28 29 8
r53 26 100 0.330804
r54 25 28 0.8036
r55 25 26 8
r56 23 94 0.330804
r57 22 25 0.805
r58 22 23 8
r59 20 88 0.330804
r60 19 22 0.8036
r61 19 20 8
r62 15 19 0.9674
r63 15 16 8
r64 7 16 0.477054
r65 6 82 0.0748621
r66 6 7 0.0363319
.ends

.subckt PM_DECODER_3TO8%W1 25 38 41 44 47 50 53 56 59 62 65 68 71
c0 136 0 0.180263f
c1 135 0 0.310719f
c2 130 0 0.18061f
c3 129 0 0.405333f
c4 124 0 0.185408f
c5 123 0 0.496956f
c6 118 0 0.180366f
c7 117 0 0.363393f
c8 112 0 0.18061f
c9 111 0 0.405396f
c10 106 0 0.185626f
c11 105 0 0.484224f
c12 100 0 0.103047f
c13 95 0 0.105437f
c14 91 0 0.107532f
c15 84 0 0.104375f
c16 79 0 0.105437f
c17 75 0 0.107532f
c18 68 0 0.397715f
c19 62 0 0.415936f
c20 56 0 0.396309f
c21 50 0 0.414648f
c22 44 0 0.415936f
c23 38 0 0.396455f
c24 33 0 5.24766f
r25 135 136 8
r26 129 130 8
r27 123 124 8
r28 117 118 8
r29 111 112 8
r30 105 106 8
r31 100 102 8.43283
r32 100 136 13.2552
r33 95 97 8.43283
r34 95 130 13.2552
r35 91 124 13.2552
r36 88 91 3.348
r37 84 86 8.43283
r38 84 118 13.2552
r39 79 81 8.43283
r40 79 112 13.2552
r41 75 106 13.2552
r42 72 75 3.348
r43 71 102 76.75
r44 68 71 94.25
r45 65 97 76.75
r46 62 65 94.25
r47 56 59 94.25
r48 54 88 5.0159
r49 54 59 76.75
r50 53 86 76.75
r51 50 53 94.25
r52 47 81 76.75
r53 44 47 94.25
r54 38 41 94.25
r55 36 72 5.0159
r56 36 41 76.75
r57 34 135 0.573182
r58 33 34 8
r59 31 129 0.562946
r60 30 33 0.8008
r61 30 31 8
r62 28 123 0.562946
r63 27 30 2.681
r64 27 28 8
r65 25 27 0.80668
r66 23 117 0.573182
r67 22 25 0.17052
r68 22 23 8
r69 20 111 0.562946
r70 19 22 0.8008
r71 19 20 8
r72 16 105 0.562946
r73 15 19 2.681
r74 15 16 8
.ends

.subckt PM_DECODER_3TO8%XI1/NET4 21 26 33 36 39 42
c0 67 0 0.18061f
c1 66 0 0.448272f
c2 61 0 0.180548f
c3 60 0 0.499905f
c4 49 0 0.105415f
c5 44 0 0.105437f
c6 39 0 0.415808f
c7 33 0 0.415927f
c8 29 0 0.481838f
c9 18 0 1.30927f
c10 12 0 0.631614f
c11 4 0 0.0906018f
r12 66 67 8
r13 60 61 8
r14 54 55 8
r15 49 51 8.43283
r16 49 67 13.2552
r17 44 46 8.43283
r18 44 61 13.2552
r19 42 51 76.75
r20 39 42 94.25
r21 36 46 76.75
r22 33 36 94.25
r23 28 29 16.3327
r24 26 28 4.608
r25 24 55 0.211057
r26 24 29 0.550755
r27 23 24 8.16635
r28 21 23 2.304
r29 19 66 0.809545
r30 18 19 8
r31 16 60 0.795089
r32 15 18 0.8036
r33 15 16 8
r34 11 15 0.91
r35 11 12 8
r36 5 12 0.939018
r37 4 54 0.0593667
r38 4 5 0.0363736
.ends

.subckt PM_DECODER_3TO8%W0 25 38 41 44 47 50 53 56 59 62 65 68 71
c0 136 0 0.0900912f
c1 135 0 0.493034f
c2 130 0 0.090092f
c3 129 0 0.500767f
c4 124 0 0.181852f
c5 123 0 0.428218f
c6 118 0 0.0900922f
c7 117 0 0.498404f
c8 112 0 0.090092f
c9 111 0 0.500767f
c10 106 0 0.181852f
c11 105 0 0.428218f
c12 100 0 0.110249f
c13 95 0 0.110249f
c14 91 0 0.109935f
c15 84 0 0.110249f
c16 79 0 0.110249f
c17 75 0 0.109935f
c18 68 0 0.349285f
c19 62 0 0.349312f
c20 56 0 0.395f
c21 50 0 0.349288f
c22 44 0 0.349312f
c23 38 0 0.395145f
c24 33 0 5.56358f
r25 135 136 8
r26 129 130 8
r27 123 124 8
r28 117 118 8
r29 111 112 8
r30 105 106 8
r31 100 102 8.35746
r32 100 136 13.2552
r33 95 97 8.35746
r34 95 130 13.2552
r35 91 124 13.2552
r36 88 91 3.348
r37 84 86 8.35746
r38 84 118 13.2552
r39 79 81 8.35746
r40 79 112 13.2552
r41 75 106 13.2552
r42 72 75 3.348
r43 71 102 37.75
r44 68 71 94.25
r45 65 97 37.75
r46 62 65 94.25
r47 56 59 94.25
r48 54 88 5.0159
r49 54 59 76.75
r50 53 86 37.75
r51 50 53 94.25
r52 47 81 37.75
r53 44 47 94.25
r54 38 41 94.25
r55 36 72 5.0159
r56 36 41 76.75
r57 34 135 0.631429
r58 33 34 8
r59 31 129 0.631429
r60 30 33 1.6086
r61 30 31 8
r62 28 123 0.439035
r63 27 30 1.2964
r64 27 28 8
r65 25 27 0.84448
r66 23 117 0.631429
r67 22 25 0.70952
r68 22 23 8
r69 20 111 0.631429
r70 19 22 1.6086
r71 19 20 8
r72 16 105 0.439035
r73 15 19 1.2964
r74 15 16 8
.ends

.subckt PM_DECODER_3TO8%XI1/NET6 21 26 33 36 39 42
c0 67 0 0.089974f
c1 66 0 0.617613f
c2 61 0 0.0754744f
c3 60 0 0.602509f
c4 49 0 0.110247f
c5 44 0 0.110143f
c6 39 0 0.349312f
c7 33 0 0.34929f
c8 29 0 0.464809f
c9 18 0 1.46442f
c10 12 0 0.577309f
c11 4 0 0.0680215f
r12 66 67 8
r13 60 61 8
r14 54 55 8
r15 49 51 8.35746
r16 49 67 13.2552
r17 44 46 8.35746
r18 44 61 13.2552
r19 42 51 37.75
r20 39 42 94.25
r21 36 46 37.75
r22 33 36 94.25
r23 28 29 16.3327
r24 26 28 4.608
r25 24 55 0.211057
r26 24 29 0.550755
r27 23 24 8.16635
r28 21 23 2.304
r29 19 66 0.848421
r30 18 19 8
r31 16 60 0.863571
r32 15 18 1.6086
r33 15 16 8
r34 11 15 0.3304
r35 11 12 8
r36 5 12 0.825268
r37 4 54 0.0614138
r38 4 5 0.0363319
.ends

.subckt PM_DECODER_3TO8%XI0/NET1 31 36 43 46 49 52 55 58 61 64
c0 107 0 0.127359f
c1 106 0 0.264062f
c2 101 0 0.127175f
c3 100 0 0.263798f
c4 95 0 0.127359f
c5 94 0 0.264062f
c6 89 0 0.133067f
c7 88 0 0.376047f
c8 78 0 0.104809f
c9 74 0 0.104758f
c10 70 0 0.104809f
c11 66 0 0.107721f
c12 61 0 0.426694f
c13 55 0 0.426574f
c14 49 0 0.426697f
c15 43 0 0.429258f
c16 39 0 0.467587f
c17 28 0 2.36137f
c18 16 0 0.388172f
c19 6 0 0.0774736f
r20 106 107 8
r21 100 101 8
r22 94 95 8
r23 88 89 8
r24 82 83 8
r25 78 80 2.95792
r26 78 107 13.2552
r27 74 76 2.95792
r28 74 101 13.2552
r29 70 72 2.95792
r30 70 95 13.2552
r31 66 68 2.95792
r32 66 89 13.2552
r33 61 64 94.25
r34 59 80 5.00671
r35 59 64 76.75
r36 55 58 94.25
r37 53 76 5.00671
r38 53 58 76.75
r39 49 52 94.25
r40 47 72 5.00671
r41 47 52 76.75
r42 43 46 94.25
r43 41 68 5.00671
r44 41 46 76.75
r45 38 39 16.3327
r46 36 38 4.608
r47 34 83 0.208415
r48 34 39 0.550755
r49 33 34 8.16635
r50 31 33 2.304
r51 29 106 0.330804
r52 28 29 8
r53 26 100 0.330804
r54 25 28 0.8036
r55 25 26 8
r56 23 94 0.330804
r57 22 25 0.805
r58 22 23 8
r59 20 88 0.330804
r60 19 22 0.8036
r61 19 20 8
r62 15 19 0.9842
r63 15 16 8
r64 7 16 0.477054
r65 6 82 0.0602931
r66 6 7 0.0363319
.ends

.subckt PM_DECODER_3TO8%XI0/NET4 21 26 33 36 39 42
c0 67 0 0.18061f
c1 66 0 0.446134f
c2 61 0 0.180548f
c3 60 0 0.497728f
c4 49 0 0.105415f
c5 44 0 0.105437f
c6 39 0 0.415808f
c7 33 0 0.415927f
c8 29 0 0.481741f
c9 18 0 0.869364f
c10 12 0 0.639606f
c11 4 0 0.0893619f
r12 66 67 8
r13 60 61 8
r14 54 55 8
r15 49 51 8.43283
r16 49 67 13.2552
r17 44 46 8.43283
r18 44 61 13.2552
r19 42 51 76.75
r20 39 42 94.25
r21 36 46 76.75
r22 33 36 94.25
r23 28 29 16.3327
r24 26 28 4.608
r25 24 55 0.211057
r26 24 29 0.550755
r27 23 24 8.16635
r28 21 23 2.304
r29 19 66 0.809545
r30 18 19 8
r31 16 60 0.795089
r32 15 18 0.8036
r33 15 16 8
r34 11 15 0.91
r35 11 12 8
r36 5 12 0.939018
r37 4 54 0.0593667
r38 4 5 0.0363736
.ends

.subckt PM_DECODER_3TO8%XI0/NET6 21 26 33 36 39 42
c0 67 0 0.089974f
c1 66 0 0.617221f
c2 61 0 0.0754744f
c3 60 0 0.602509f
c4 49 0 0.110247f
c5 44 0 0.110143f
c6 39 0 0.349312f
c7 33 0 0.34929f
c8 29 0 0.464809f
c9 18 0 1.42118f
c10 12 0 0.577309f
c11 4 0 0.0680215f
r12 66 67 8
r13 60 61 8
r14 54 55 8
r15 49 51 8.35746
r16 49 67 13.2552
r17 44 46 8.35746
r18 44 61 13.2552
r19 42 51 37.75
r20 39 42 94.25
r21 36 46 37.75
r22 33 36 94.25
r23 28 29 16.3327
r24 26 28 4.608
r25 24 55 0.211057
r26 24 29 0.550755
r27 23 24 8.16635
r28 21 23 2.304
r29 19 66 0.848421
r30 18 19 8
r31 16 60 0.863571
r32 15 18 1.6086
r33 15 16 8
r34 11 15 0.3304
r35 11 12 8
r36 5 12 0.825268
r37 4 54 0.0614138
r38 4 5 0.0363319
.ends

.subckt PM_DECODER_3TO8%EN 4 7 15
c0 15 0 0.186168f
c1 11 0 0.105049f
c2 4 0 0.377944f
r3 11 15 13.2552
r4 8 11 3.348
r5 4 7 94.25
r6 2 8 5.0159
r7 2 7 76.75
.ends

.subckt PM_DECODER_3TO8%Y7 7 9 14 19 20
c0 23 0 0.159905f
c1 17 0 0.159254f
c2 12 0 0.0984675f
c3 7 0 0.0193611f
c4 2 0 0.140569f
r5 22 23 16.3327
r6 20 22 4.608
r7 19 22 4.572
r8 16 17 16.3327
r9 14 16 4.572
r10 11 12 8.16635
r11 9 11 2.286
r12 8 23 0.325348
r13 5 12 0.207623
r14 5 7 0.0263039
r15 4 17 0.282377
r16 4 7 0.0263039
r17 3 7 0.0106565
r18 2 8 0.039111
r19 2 3 0.353043
.ends

.subckt PM_DECODER_3TO8%Y6 7 9 14 19 20
c0 23 0 0.159857f
c1 17 0 0.145557f
c2 12 0 0.0996079f
c3 7 0 0.0136366f
c4 2 0 0.14053f
r5 22 23 16.3327
r6 20 22 4.608
r7 19 22 4.572
r8 16 17 16.3327
r9 14 16 4.572
r10 11 12 8.16635
r11 9 11 2.286
r12 8 23 0.325348
r13 5 12 0.207623
r14 5 7 0.0263039
r15 4 17 0.282377
r16 4 7 0.0263039
r17 3 7 0.0106565
r18 2 8 0.039111
r19 2 3 0.353043
.ends

.subckt PM_DECODER_3TO8%Y5 7 9 14 19 20
c0 23 0 0.159905f
c1 17 0 0.145283f
c2 12 0 0.0991736f
c3 7 0 0.0136135f
c4 2 0 0.140553f
r5 22 23 16.3327
r6 20 22 4.608
r7 19 22 4.572
r8 16 17 16.3327
r9 14 16 4.572
r10 11 12 8.16635
r11 9 11 2.286
r12 8 23 0.325348
r13 5 12 0.207623
r14 5 7 0.0263039
r15 4 17 0.282377
r16 4 7 0.0263039
r17 3 7 0.0106565
r18 2 8 0.039111
r19 2 3 0.353043
.ends

.subckt PM_DECODER_3TO8%Y4 7 9 14 19 20
c0 23 0 0.155895f
c1 17 0 0.145557f
c2 12 0 0.0993015f
c3 7 0 0.0136366f
c4 2 0 0.138821f
r5 22 23 16.3327
r6 20 22 4.608
r7 19 22 4.572
r8 16 17 16.3327
r9 14 16 4.572
r10 11 12 8.16635
r11 9 11 2.286
r12 8 23 0.325348
r13 5 12 0.207623
r14 5 7 0.0263039
r15 4 17 0.282377
r16 4 7 0.0263039
r17 3 7 0.0106565
r18 2 8 0.039111
r19 2 3 0.353043
.ends

.subckt PM_DECODER_3TO8%Y3 7 9 14 19 20
c0 23 0 0.159905f
c1 17 0 0.159254f
c2 12 0 0.0984675f
c3 7 0 0.0193611f
c4 2 0 0.140569f
r5 22 23 16.3327
r6 20 22 4.608
r7 19 22 4.572
r8 16 17 16.3327
r9 14 16 4.572
r10 11 12 8.16635
r11 9 11 2.286
r12 8 23 0.325348
r13 5 12 0.207623
r14 5 7 0.0263039
r15 4 17 0.282377
r16 4 7 0.0263039
r17 3 7 0.0106565
r18 2 8 0.039111
r19 2 3 0.353043
.ends

.subckt PM_DECODER_3TO8%Y2 7 9 14 19 20
c0 23 0 0.159857f
c1 17 0 0.145557f
c2 12 0 0.0996079f
c3 7 0 0.0136366f
c4 2 0 0.14053f
r5 22 23 16.3327
r6 20 22 4.608
r7 19 22 4.572
r8 16 17 16.3327
r9 14 16 4.572
r10 11 12 8.16635
r11 9 11 2.286
r12 8 23 0.325348
r13 5 12 0.207623
r14 5 7 0.0263039
r15 4 17 0.282377
r16 4 7 0.0263039
r17 3 7 0.0106565
r18 2 8 0.039111
r19 2 3 0.353043
.ends

.subckt PM_DECODER_3TO8%Y1 7 9 14 19 20
c0 23 0 0.159905f
c1 17 0 0.145283f
c2 12 0 0.0991736f
c3 7 0 0.0136135f
c4 2 0 0.140553f
r5 22 23 16.3327
r6 20 22 4.608
r7 19 22 4.572
r8 16 17 16.3327
r9 14 16 4.572
r10 11 12 8.16635
r11 9 11 2.286
r12 8 23 0.325348
r13 5 12 0.207623
r14 5 7 0.0263039
r15 4 17 0.282377
r16 4 7 0.0263039
r17 3 7 0.0106565
r18 2 8 0.039111
r19 2 3 0.353043
.ends

.subckt PM_DECODER_3TO8%Y0 7 9 14 19 20
c0 23 0 0.152063f
c1 17 0 0.145557f
c2 12 0 0.0993015f
c3 7 0 0.0136366f
c4 2 0 0.136685f
r5 22 23 16.3327
r6 20 22 4.608
r7 19 22 4.572
r8 16 17 16.3327
r9 14 16 4.572
r10 11 12 8.16635
r11 9 11 2.286
r12 8 23 0.325348
r13 5 12 0.207623
r14 5 7 0.0263039
r15 4 17 0.282377
r16 4 7 0.0263039
r17 3 7 0.0106565
r18 2 8 0.039111
r19 2 3 0.353043
.ends

.subckt PM_DECODER_3TO8%GND 109 110 117 122 127 132 137 142 147 152 157 162 163
+ 167 172 173 177 182 183 187 192 193 197 202 207 212 217 218 222 227 228 232
+ 237 238 242 247 248 252
c0 255 0 0.0742066f
c1 251 0 0.0948519f
c2 245 0 0.0936832f
c3 241 0 0.094868f
c4 235 0 0.0934836f
c5 231 0 0.0948519f
c6 225 0 0.0936832f
c7 221 0 0.0971388f
c8 215 0 0.101009f
c9 210 0 0.0989252f
c10 205 0 0.066691f
c11 200 0 0.0652745f
c12 196 0 0.0948519f
c13 190 0 0.0936832f
c14 186 0 0.094868f
c15 180 0 0.0934836f
c16 176 0 0.0948519f
c17 170 0 0.0936832f
c18 166 0 0.0971388f
c19 160 0 0.101009f
c20 155 0 0.0989087f
c21 150 0 0.0672596f
c22 145 0 0.0651232f
c23 140 0 0.0593865f
c24 135 0 0.0669337f
c25 130 0 0.0814005f
c26 125 0 0.0983372f
c27 120 0 0.0756335f
c28 54 0 0.0241528f
c29 52 0 0.0246298f
c30 50 0 0.0241528f
c31 48 0 0.0246298f
c32 46 0 0.0241528f
c33 44 0 0.0246298f
c34 42 0 0.0241528f
c35 40 0 0.0420362f
c36 38 0 0.0174064f
c37 36 0 0.0174064f
c38 32 0 0.0241528f
c39 30 0 0.0246298f
c40 28 0 0.0241528f
c41 26 0 0.0246298f
c42 24 0 0.0241528f
c43 22 0 0.0246298f
c44 20 0 0.0241528f
c45 18 0 0.0420362f
c46 16 0 0.0174064f
c47 14 0 0.0174064f
c48 12 0 9.99279e-21
c49 10 0 0.0246434f
c50 8 0 2.32133e-19
c51 6 0 0.0246434f
c52 4 0 0.0168475f
c53 2 0 0.0174064f
r54 254 255 16.3327
r55 252 254 4.608
r56 250 251 16.3327
r57 248 250 5.148
r58 247 250 4.572
r59 244 245 16.3327
r60 242 244 4.608
r61 240 241 16.3327
r62 238 240 5.148
r63 237 240 4.572
r64 234 235 16.3327
r65 232 234 4.608
r66 230 231 16.3327
r67 228 230 5.148
r68 227 230 4.572
r69 224 225 16.3327
r70 222 224 4.608
r71 220 221 16.3327
r72 218 220 5.148
r73 217 220 4.572
r74 214 215 16.3327
r75 212 214 4.572
r76 209 210 16.3327
r77 207 209 4.572
r78 204 205 16.3327
r79 202 204 4.572
r80 199 200 16.3327
r81 197 199 4.608
r82 195 196 16.3327
r83 193 195 5.148
r84 192 195 4.572
r85 190 285 0.189132
r86 189 190 16.3327
r87 187 189 4.608
r88 185 186 16.3327
r89 183 185 5.148
r90 182 185 4.572
r91 179 180 16.3327
r92 177 179 4.608
r93 175 176 16.3327
r94 173 175 5.148
r95 172 175 4.572
r96 169 170 16.3327
r97 167 169 4.608
r98 165 166 16.3327
r99 163 165 5.148
r100 162 165 4.572
r101 159 160 16.3327
r102 157 159 4.572
r103 154 155 16.3327
r104 152 154 4.572
r105 149 150 16.3327
r106 147 149 4.572
r107 144 145 16.3327
r108 142 144 4.608
r109 139 140 16.3327
r110 137 139 4.572
r111 134 135 16.3327
r112 132 134 4.608
r113 129 130 16.3327
r114 127 129 4.572
r115 124 125 16.3327
r116 122 124 4.572
r117 119 120 16.3327
r118 117 119 4.572
r119 115 285 0.0158618
r120 110 115 0.204159
r121 107 255 0.189132
r122 107 109 0.0243706
r123 105 251 0.217913
r124 105 106 0.0189182
r125 103 245 0.189132
r126 103 104 0.0158618
r127 101 241 0.217913
r128 101 102 0.0189182
r129 99 235 0.189132
r130 99 100 0.0158618
r131 97 231 0.217913
r132 97 98 0.0189182
r133 95 225 0.189132
r134 95 96 0.0158618
r135 93 221 0.217913
r136 93 94 0.0189182
r137 91 215 0.189132
r138 91 92 0.0158618
r139 89 210 0.189132
r140 89 90 0.0158618
r141 87 205 0.189132
r142 87 88 0.0158618
r143 85 200 0.189132
r144 85 86 0.0158618
r145 83 196 0.217913
r146 83 84 0.0189182
r147 81 186 0.217913
r148 81 82 0.0189182
r149 79 180 0.189132
r150 79 80 0.0158618
r151 77 176 0.217913
r152 77 78 0.0189182
r153 75 170 0.189132
r154 75 76 0.0158618
r155 73 166 0.217913
r156 73 74 0.0189182
r157 71 160 0.189132
r158 71 72 0.0158618
r159 69 155 0.189132
r160 69 70 0.0158618
r161 67 150 0.189132
r162 67 68 0.0158618
r163 65 145 0.186491
r164 65 66 0.0158618
r165 63 140 0.21487
r166 63 64 0.0189182
r167 61 135 0.186491
r168 61 62 0.0158618
r169 59 130 0.21487
r170 59 60 0.0189182
r171 57 125 0.195736
r172 57 58 0.0158618
r173 56 120 0.189132
r174 55 106 0.0187308
r175 54 109 0.016622
r176 54 55 0.203718
r177 53 104 0.0212575
r178 52 106 0.0187308
r179 52 53 0.222564
r180 51 102 0.0187308
r181 50 104 0.0212575
r182 50 51 0.203718
r183 49 100 0.0212575
r184 48 102 0.0187308
r185 48 49 0.223462
r186 47 98 0.0187308
r187 46 100 0.0212575
r188 46 47 0.203718
r189 45 96 0.0212575
r190 44 98 0.0187308
r191 44 45 0.222564
r192 43 94 0.0187308
r193 42 96 0.0212575
r194 42 43 0.203718
r195 41 92 0.0212575
r196 40 94 0.0187308
r197 40 41 0.35359
r198 39 90 0.0212575
r199 38 92 0.0212575
r200 38 39 0.215385
r201 37 88 0.0212575
r202 36 90 0.0212575
r203 36 37 0.215385
r204 35 86 0.0212575
r205 34 88 0.0212575
r206 34 35 0.0924359
r207 33 84 0.0187308
r208 32 86 0.0212575
r209 32 33 0.203718
r210 31 115 0.0212575
r211 30 84 0.0187308
r212 30 31 0.222564
r213 29 82 0.0187308
r214 28 115 0.0212575
r215 28 29 0.203718
r216 27 80 0.0212575
r217 26 82 0.0187308
r218 26 27 0.223462
r219 25 78 0.0187308
r220 24 80 0.0212575
r221 24 25 0.203718
r222 23 76 0.0212575
r223 22 78 0.0187308
r224 22 23 0.222564
r225 21 74 0.0187308
r226 20 76 0.0212575
r227 20 21 0.203718
r228 19 72 0.0212575
r229 18 74 0.0187308
r230 18 19 0.35359
r231 17 70 0.0212575
r232 16 72 0.0212575
r233 16 17 0.215385
r234 15 68 0.0212575
r235 14 70 0.0212575
r236 14 15 0.214487
r237 13 66 0.0212575
r238 12 68 0.0212575
r239 12 13 0.0933333
r240 11 64 0.0187308
r241 10 66 0.0212575
r242 10 11 0.203718
r243 9 62 0.0212575
r244 8 64 0.0187308
r245 8 9 0.0942308
r246 7 60 0.0187308
r247 6 62 0.0212575
r248 6 7 0.203718
r249 5 58 0.0212575
r250 4 60 0.0187308
r251 4 5 0.24141
r252 3 56 0.0409926
r253 2 58 0.0212575
r254 2 3 0.215385
.ends

.subckt PM_DECODER_3TO8%VDD 71 72 73 78 83 88 93 98 103 108 113 118 123 128 133
+ 138 143 148 153 158
c0 161 0 0.221352f
c1 156 0 0.291064f
c2 151 0 0.290342f
c3 146 0 0.29823f
c4 141 0 0.400579f
c5 136 0 0.391867f
c6 131 0 0.251568f
c7 126 0 0.183368f
c8 121 0 0.291064f
c9 116 0 0.290342f
c10 111 0 0.29823f
c11 106 0 0.400579f
c12 101 0 0.393762f
c13 96 0 0.274907f
c14 91 0 0.215715f
c15 86 0 0.319215f
c16 85 0 0.052168f
c17 81 0 0.391746f
c18 76 0 0.286144f
c19 72 0 0.0851885f
c20 68 0 0.0219383f
c21 66 0 0.0219383f
c22 64 0 0.0219383f
c23 62 0 0.0219383f
c24 60 0 0.0219383f
c25 58 0 0.0111455f
c26 57 0 0.0169896f
c27 55 0 0.0111455f
c28 52 0 0.0219383f
c29 50 0 0.0219383f
c30 48 0 0.0219383f
c31 46 0 0.0219383f
c32 44 0 0.0219383f
c33 42 0 0.00287578f
c34 40 0 0.00293109f
c35 38 0 0.0233725f
c36 36 0 0.0219383f
c37 32 0 0.28745f
c38 30 0 0.363956f
c39 28 0 0.363524f
c40 26 0 0.494911f
c41 24 0 0.170083f
c42 22 0 0.152959f
c43 20 0 0.317096f
c44 18 0 0.363956f
c45 16 0 0.363524f
c46 14 0 0.494911f
c47 12 0 0.169653f
c48 10 0 0.120473f
c49 8 0 0.0060443f
c50 6 0 0.231238f
c51 4 0 0.382749f
c52 2 0 0.10462f
r53 160 161 8.16635
r54 158 160 2.304
r55 155 156 8.16635
r56 153 155 2.304
r57 150 151 8.16635
r58 148 150 2.304
r59 145 146 8.16635
r60 143 145 2.304
r61 140 141 8.16635
r62 138 140 2.286
r63 135 136 8.16635
r64 133 135 2.286
r65 130 131 8.16635
r66 128 130 2.286
r67 125 126 8.16635
r68 123 125 2.304
r69 120 121 8.16635
r70 118 120 2.304
r71 115 116 8.16635
r72 113 115 2.304
r73 110 111 8.16635
r74 108 110 2.304
r75 105 106 8.16635
r76 103 105 2.286
r77 100 101 8.16635
r78 98 100 2.286
r79 95 96 8.16635
r80 93 95 2.286
r81 90 91 8.16635
r82 88 90 2.304
r83 85 86 8.16635
r84 83 85 2.304
r85 80 81 8.16635
r86 78 80 2.286
r87 75 76 8.16635
r88 73 75 2.286
r89 72 167 0.251272
r90 69 161 0.545208
r91 69 71 0.0243706
r92 67 156 0.545208
r93 67 68 0.0158618
r94 65 151 0.545208
r95 65 66 0.0158618
r96 63 146 0.545208
r97 63 64 0.0158618
r98 61 141 0.545208
r99 61 62 0.0158618
r100 59 136 0.545208
r101 59 60 0.0158618
r102 57 167 0.0150769
r103 57 58 0.0212575
r104 56 131 0.545208
r105 56 58 0.0158618
r106 54 167 0.077359
r107 54 55 0.0212575
r108 53 126 0.545208
r109 53 55 0.0158618
r110 51 121 0.545208
r111 51 52 0.0158618
r112 49 116 0.545208
r113 49 50 0.0158618
r114 47 111 0.545208
r115 47 48 0.0158618
r116 45 106 0.545208
r117 45 46 0.0158618
r118 43 101 0.545208
r119 43 44 0.0158618
r120 41 96 0.555692
r121 41 42 0.0162712
r122 39 91 0.547849
r123 39 40 0.0158618
r124 37 86 0.547849
r125 37 38 0.0158618
r126 35 81 0.538604
r127 35 36 0.0158618
r128 34 76 0.545208
r129 33 68 0.0212575
r130 32 71 0.016622
r131 32 33 0.467564
r132 31 66 0.0212575
r133 30 68 0.0212575
r134 30 31 0.468462
r135 29 64 0.0212575
r136 28 66 0.0212575
r137 28 29 0.467564
r138 27 62 0.0212575
r139 26 64 0.0212575
r140 26 27 0.59859
r141 25 60 0.0212575
r142 24 62 0.0212575
r143 24 25 0.215385
r144 23 58 0.0212575
r145 22 60 0.0212575
r146 22 23 0.215385
r147 21 52 0.0212575
r148 20 55 0.0212575
r149 20 21 0.467564
r150 19 50 0.0212575
r151 18 52 0.0212575
r152 18 19 0.468462
r153 17 48 0.0212575
r154 16 50 0.0212575
r155 16 17 0.467564
r156 15 46 0.0212575
r157 14 48 0.0212575
r158 14 15 0.59859
r159 13 44 0.0212575
r160 12 46 0.0212575
r161 12 13 0.215385
r162 11 42 0.0209015
r163 10 44 0.0212575
r164 10 11 0.215385
r165 9 40 0.0212575
r166 8 42 0.0209015
r167 8 9 0.0933333
r168 7 38 0.0212575
r169 6 40 0.0212575
r170 6 7 0.339231
r171 5 36 0.0212575
r172 4 38 0.0212575
r173 4 5 0.48641
r174 3 34 0.0409926
r175 2 36 0.0212575
r176 2 3 0.215385
.ends

.subckt PM_DECODER_3TO8%XI2/NET4 1 2
r0 1 2 4.59
.ends

.subckt PM_DECODER_3TO8%XI3/NET4 1 2
r0 1 2 4.59
.ends

.subckt PM_DECODER_3TO8%XI1/XI5/NET1 1 2
r0 1 2 4.86
.ends

.subckt PM_DECODER_3TO8%XI1/XI5/NET4 1 2
r0 1 2 4.59
.ends

.subckt PM_DECODER_3TO8%XI1/XI4/NET1 1 2
r0 1 2 4.86
.ends

.subckt PM_DECODER_3TO8%XI1/XI4/NET4 1 2
r0 1 2 4.59
.ends

.subckt PM_DECODER_3TO8%XI1/XI3/NET1 1 2
r0 1 2 4.86
.ends

.subckt PM_DECODER_3TO8%XI1/XI3/NET4 1 2
r0 1 2 4.59
.ends

.subckt PM_DECODER_3TO8%XI1/XI2/NET1 1 2
r0 1 2 4.86
.ends

.subckt PM_DECODER_3TO8%XI1/XI2/NET4 1 2
r0 1 2 4.59
.ends

.subckt PM_DECODER_3TO8%XI0/XI5/NET1 1 2
r0 1 2 4.86
.ends

.subckt PM_DECODER_3TO8%XI0/XI5/NET4 1 2
r0 1 2 4.59
.ends

.subckt PM_DECODER_3TO8%XI0/XI4/NET1 1 2
r0 1 2 4.86
.ends

.subckt PM_DECODER_3TO8%XI0/XI4/NET4 1 2
r0 1 2 4.59
.ends

.subckt PM_DECODER_3TO8%XI0/XI3/NET1 1 2
r0 1 2 4.86
.ends

.subckt PM_DECODER_3TO8%XI0/XI3/NET4 1 2
r0 1 2 4.59
.ends

.subckt PM_DECODER_3TO8%XI0/XI2/NET1 1 2
r0 1 2 4.86
.ends

.subckt PM_DECODER_3TO8%XI0/XI2/NET4 1 2
r0 1 2 4.59
.ends

